OPT_V9/Results/My_campus_w_initial_sub_3_active_25_03_11_44/powerflow_results_t5.txt
Pandapower Network Debug Info
==================================================

BUS:
       vm_pu  va_degree      p_mw    q_mvar
0   0.994198   0.127041  0.000795  0.000771
1   0.990754   0.209340  0.001031  0.001137
2   0.987241   0.318419  0.001385  0.003138
3   0.990837   0.210816  0.002055  0.003760
4   0.991465   0.201733  0.002300  0.004181
5   0.992586   0.155429  0.003022  0.005831
6   0.991144   0.153113  0.001043  0.000768
7   0.997985   0.045039  0.001119  0.001986
8   0.998292   0.033546  0.001524  0.002012
9   0.999897   0.000368  0.007848  0.008210
10  0.999884   0.000335  0.011372  0.007648
11  0.999874   0.000323  0.012733  0.009489
12  0.999785   0.001779  0.011457  0.005877
13  0.999769   0.002034  0.011288  0.010630
14  0.999759   0.002157  0.010727  0.012739
15  0.999937   0.000349  0.000000  0.000000
16  0.999936   0.000354  0.000000  0.000000
17  0.999791   0.001840  0.000000  0.000000
18  0.999791   0.001849  0.000000  0.000000
19  1.000000   0.000000 -0.037330 -0.039224
20  1.000000   0.000005  0.000000  0.000000
21  1.000000   0.000000 -0.042601 -0.049101
22  1.000000   0.000007  0.000000  0.000000
--------------------------------------------------

LINE:
    p_from_mw  q_from_mvar   p_to_mw  q_to_mvar         pl_mw       ql_mvar  i_from_ka   i_to_ka      i_ka  vm_from_pu  va_from_degree  vm_to_pu  va_to_degree  loading_percent
0    0.037320     0.035224 -0.037318  -0.035222  2.575929e-06  2.008494e-06   0.001975  0.001975  0.001975    1.000000        0.000005  0.999937      0.000349         0.858792
1    0.042591     0.045101 -0.042581  -0.045093  1.035098e-05  8.070827e-06   0.002388  0.002388  0.002388    1.000000        0.000007  0.999791      0.001840         1.038115
2    0.031954     0.025348 -0.031953  -0.025347  1.286582e-06  1.003169e-06   0.001570  0.001570  0.001570    0.999937        0.000349  0.999897      0.000368         0.682606
3    0.011457     0.005877 -0.011457  -0.005877  5.736486e-08  4.472832e-08   0.000496  0.000496  0.000496    0.999791        0.001840  0.999785      0.001779         0.215534
4    0.022016     0.023370 -0.022015  -0.023369  5.638834e-07  4.396692e-07   0.001236  0.001236  0.001236    0.999791        0.001840  0.999769      0.002034         0.537407
5    0.005354     0.008874 -0.005303  -0.008835  5.024359e-05  3.917575e-05   0.014960  0.014960  0.014960    0.999936        0.000354  0.994198      0.127041         6.504271
6    0.004114     0.006637 -0.004067  -0.006600  4.732297e-05  3.689850e-05   0.011273  0.011273  0.011273    0.999791        0.001849  0.992586      0.155429         4.901261
7    0.001122     0.001988 -0.001119  -0.001986  3.524142e-06  2.747831e-06   0.003297  0.003297  0.003297    0.999791        0.001849  0.997985      0.045039         1.433280
8    0.003861     0.006222 -0.003852  -0.006215  9.223276e-06  7.191541e-06   0.010572  0.010572  0.010572    0.999791        0.001849  0.998292      0.033546         4.596305
9   -0.024105    -0.017136  0.024105   0.017137  3.025606e-07  2.359115e-07   0.001138  0.001138  0.001138    0.999884        0.000335  0.999897      0.000368         0.494994
10  -0.012733    -0.009489  0.012733   0.009489  1.233492e-07  9.617739e-08   0.000611  0.000611  0.000611    0.999874        0.000323  0.999884      0.000335         0.265769
11  -0.010727    -0.012739  0.010727   0.012740  1.357141e-07  1.058185e-07   0.000641  0.000641  0.000641    0.999759        0.002157  0.999769      0.002034         0.278772
12  -0.002426    -0.004283  0.002441   0.004295  1.460647e-05  1.138890e-05   0.007172  0.007172  0.007172    0.990754        0.209340  0.994198      0.127041         3.118178
13  -0.002055    -0.003760  0.002068   0.003769  1.248569e-05  9.735299e-06   0.006242  0.006242  0.006242    0.990837        0.210816  0.994198      0.127041         2.713765
14  -0.001385    -0.003138  0.001396   0.003147  1.092088e-05  8.515190e-06   0.005015  0.005015  0.005015    0.987241        0.318419  0.990754      0.209340         2.180487
15   0.002328     0.004203 -0.002300  -0.004181  2.818257e-05  2.197441e-05   0.006947  0.006947  0.006947    0.998292        0.033546  0.991465      0.201733         3.020233
16  -0.001043    -0.000768  0.001045   0.000769  1.486853e-06  1.159324e-06   0.001886  0.001886  0.001886    0.991144        0.153113  0.992586      0.155429         0.820108
--------------------------------------------------

TRAFO:
    p_hv_mw  q_hv_mvar   p_lv_mw  q_lv_mvar    pl_mw  ql_mvar   i_hv_ka   i_lv_ka  vm_hv_pu  va_hv_degree  vm_lv_pu  va_lv_degree  loading_percent
0  0.005364   0.009874 -0.005354  -0.008874  0.00001    0.001  0.000433  0.014960  0.999937      0.000349  0.999936      0.000354         0.112373
1  0.009108   0.015847 -0.009098  -0.014847  0.00001    0.001  0.000704  0.025139  0.999791      0.001840  0.999791      0.001849         0.182813
2  0.037330   0.039224 -0.037320  -0.035224  0.00001    0.004  0.000447  0.001975  1.000000      0.000000  1.000000      0.000005         0.135371
3  0.042601   0.049101 -0.042591  -0.045101  0.00001    0.004  0.000536  0.002388  1.000000      0.000000  1.000000      0.000007         0.162515
--------------------------------------------------
